#!/system/bin/sh
#ThermodX™ 1301 R Beta program
# Author: USIF (USIFX @ github)
# Credits : p3dr0zzz (pedrozzz0 @ github), tytydraco (tytydraco @ github), Matt Yang (yc9559 @ github), Ferat Kesaev (feravolt @ github) , LOOPER (iamlooper @ github)
# Don't take any work from here until you maintain proper credits of respective devs.

MODPATH="/data/adb/modules/ThermodX.ADB/"

bb="/data/adb/magisk/busybox"

# Start main
$bb sh "${FILESPATH}script/XLOG.sh"
